LTspice 24.1.9 for Windows
Circuit: C:\users\Niko\Desktop\projects\stylophone\sim\stylophonev01.net
Start Time: Tue Nov  4 22:52:12 2025
solver = Normal
Maximum thread count: 8
tnom = 27
temp = 27
method = trap
Total elapsed time: 0.000 seconds.
                       --- Internal Error 0 ---
Please report this problem with all required files to duplicate the crash
as per Help > Get Support
